ROMS/TOMS Framework: Octobre 28, 2017
===================

Copyright (c) 2002-2017 The ROMS/TOMS Group
  Licensed under a MIT/X style license
  See License_ROMS.txt

svn: $HeadURL: https://www.myroms.org/svn/src/trunk/ROMS/Version $
svn: $LastChangedBy: arango $
svn: $LastChangedRevision: 874 $
svn: $LastChangedDate: 2017-10-28 22:56:39 +0200 (Sub, 28 Lis 2017) $